$ NASTRAN input file created by the MSC MSC.Nastran input file
$ translator ( MSC.Patran 14.0.018 ) on November  30, 2011 at 18:43:19.
$ Direct Text Input for Nastran System Cell Section
$ Direct Text Input for File Management Section
$ Linear Static Analysis, Database
SOL 101
$ Direct Text Input for Executive Control
CEND
TITLE = MSC.Nastran job created on 30-Nov-11 at 18:43:08
ECHO = NONE
$ Direct Text Input for Global Case Control Data
SUBCASE 1
$ Subcase name : Default
   SUBTITLE=Default
   SPC = 2
   LOAD = 2
   TEMPERATURE(LOAD) = 5
   DISPLACEMENT(SORT1,REAL)=ALL
   SPCFORCES(SORT1,REAL)=ALL
   STRESS(SORT1,REAL,VONMISES,BILIN)=ALL
BEGIN BULK
PARAM    POST    0
PARAM   PRTMAXIM YES
$ Direct Text Input for Bulk Data
$ Elements and Element Properties for region : bloque
PSOLID   1       1       0
$ Pset: "bloque" will be imported as: "psolid.1"
CTETRA   1       1       381     379     328     380
CTETRA   2       1       381     379     419     407
CTETRA   3       1       381     379     380     419
CTETRA   4       1       381     384     383     420
CTETRA   5       1       195     217     216     239
CTETRA   6       1       195     150     168     156
CTETRA   7       1       195     216     243     239
CTETRA   8       1       195     168     193     157
CTETRA   9       1       195     197     203     243
CTETRA   10      1       195     168     157     156
CTETRA   11      1       195     243     203     205
CTETRA   12      1       439     429     412     428
CTETRA   13      1       118     99      89      140
CTETRA   14      1       372     397     399     416
CTETRA   15      1       175     170     140     152
CTETRA   16      1       118     157     105     152
CTETRA   17      1       405     403     360     404
CTETRA   18      1       405     410     409     360
CTETRA   19      1       405     359     408     410
CTETRA   20      1       405     355     359     360
$ ... 1793 like lines cut
$ Referenced Material Records
$ Material Record : material
$ Description of Material : Date: 30-Nov-11           Time: 18:41:45
MAT1     1      1.+11           .25
$ Nodes of the Entire Model
GRID     1              .2       0.      0.
GRID     2              .6       0.      0.
GRID     3              .8       0.      0.
GRID     4              1.       0.      0.
GRID     5              .6       0.     1.
GRID     6              .2       0.     1.
GRID     7              .219914  0.     .400389
GRID     8              .31866   0.     .200124
GRID     9              .42677   0.     .401575
GRID     10             .4       0.     1.
GRID     11              0.      0.     1.
GRID     12              0.      0.     .8
GRID     13             .30991   0.     .602241
GRID     14              0.      0.      0.
GRID     15             .119307  0.     .600393
GRID     16              0.      0.     .6
GRID     17             .124848  0.     .199996
GRID     18              0.      0.     .4
GRID     19              0.      0.     .2
GRID     20             .4       0.      0.
$ ... 426 like lines cut
$ Loads for Load Case : Default
SPCADD   2       1       3
LOAD     2      1.      1.       1      1.       3      1.       4
$ Nodal Temperatures of Load Set : tempz_0
TEMP     5       1      100.     2      100.     3      100.
TEMP     5       4      100.     14     100.     20     100.
TEMP     5       21     100.     23     100.     25     100.
TEMP     5       40     100.     57     100.     65     100.
TEMP     5       67     100.     70     100.     71     100.
TEMP     5       87     100.     103    100.     112    100.
TEMP     5       114    100.     116    100.     120    100.
TEMP     5       122    100.     136    100.     150    100.
TEMP     5       151    100.     165    100.     166    100.
TEMP     5       167    100.     181    100.     190    100.
TEMP     5       191    100.     192    100.     196    100.
TEMP     5       198    100.     199    100.     212    100.
TEMP     5       213    100.     230    100.     237    100.
TEMP     5       238    100.     246    100.     261    100.
TEMP     5       262    100.     263    100.     264    100.
TEMP     5       265    100.     286    100.     293    100.
TEMP     5       295    100.     313    100.     314    100.
TEMP     5       316    100.     317    100.     318    100.
TEMP     5       341    100.     349    100.     350    100.
TEMP     5       351    100.     369    100.     370    100.
TEMP     5       371    100.     372    100.     373    100.
TEMP     5       397    100.     400    100.     401    100.
$ Displacement Constraints of Load Set : despx_0
SPC1     1       123     11      12      14      16      18      19
         57      58      60      62      63      64      103     104
         106     107     110     111     151     154     155     161
         162     163     198     199     202     203     204     207
         208     245     246     251     252     253     254     291
         295     300     301     305     306     307     346     347
         349     350     353     358     364     365     394     395
         398     401     402     404     406     412     427     428
         429     430     431     436
$ Displacement Constraints of Load Set : despy_0
SPC1     3       123     1       THRU    20
SPC1     3       123     24      26      27      28      29      30
SPC1     3       123     32      THRU    38
SPC1     3       123     44      47      48
$ Nodal Forces of Load Set : forcez_1
FORCE    4       5       0      1.      -1.      0.      0.
FORCE    4       6       0      1.      -1.      0.      0.
FORCE    4       10      0      1.      -1.      0.      0.
FORCE    4       11      0      1.      -1.      0.      0.
FORCE    4       32      0      1.      -1.      0.      0.
FORCE    4       37      0      1.      -1.      0.      0.
FORCE    4       45      0      1.      -1.      0.      0.
FORCE    4       46      0      1.      -1.      0.      0.
FORCE    4       50      0      1.      -1.      0.      0.
FORCE    4       56      0      1.      -1.      0.      0.
FORCE    4       58      0      1.      -1.      0.      0.
FORCE    4       84      0      1.      -1.      0.      0.
FORCE    4       92      0      1.      -1.      0.      0.
FORCE    4       93      0      1.      -1.      0.      0.
FORCE    4       95      0      1.      -1.      0.      0.
FORCE    4       98      0      1.      -1.      0.      0.
FORCE    4       102     0      1.      -1.      0.      0.
FORCE    4       104     0      1.      -1.      0.      0.
FORCE    4       142     0      1.      -1.      0.      0.
FORCE    4       144     0      1.      -1.      0.      0.
$ ... 46 like lines cut
$ Pressure Loads of Load Set : pressx_1
PLOAD4   1       84     1.                               222     257
PLOAD4   1       91     1.                               209     219
PLOAD4   1       106    1.                               315     312
PLOAD4   1       107    1.                               261     312
PLOAD4   1       118    1.                               227     224
PLOAD4   1       172    1.                               34      74
PLOAD4   1       176    1.                               255     277
PLOAD4   1       248    1.                               129     173
PLOAD4   1       360    1.                               134     172
PLOAD4   1       366    1.                               135     86
PLOAD4   1       459    1.                               333     384
PLOAD4   1       467    1.                               386     389
PLOAD4   1       477    1.                               30      31
PLOAD4   1       547    1.                               339     389
PLOAD4   1       577    1.                               279     326
PLOAD4   1       616    1.                               85      77
PLOAD4   1       621    1.                               279     327
PLOAD4   1       673    1.                               279     284
PLOAD4   1       729    1.                               285     311
PLOAD4   1       781    1.                               176     224
$ ... 80 like lines cut
$ Pressures of Distributed Load Set : loady_2
PLOAD4   3       165    1.                               436     433
         0       0.     1.       0.
PLOAD4   3       351    1.                               443     425
         0       0.     1.       0.
PLOAD4   3       384    1.                               435     398
         0       0.     1.       0.
PLOAD4   3       405    1.                               390     340
         0       0.     1.       0.
PLOAD4   3       407    1.                               423     388
         0       0.     1.       0.
PLOAD4   3       547    1.                               389     338
         0       0.     1.       0.
PLOAD4   3       561    1.                               418     380
         0       0.     1.       0.
PLOAD4   3       566    1.                               334     329
         0       0.     1.       0.
PLOAD4   3       722    1.                               426     414
         0       0.     1.       0.
PLOAD4   3       723    1.                               397     399
         0       0.     1.       0.
PLOAD4   3       935    1.                               417     416
         0       0.     1.       0.
PLOAD4   3       1245   1.                               385     333
         0       0.     1.       0.
PLOAD4   3       1259   1.                               397     416
         0       0.     1.       0.
PLOAD4   3       1294   1.                               423     421
         0       0.     1.       0.
PLOAD4   3       1335   1.                               444     439
         0       0.     1.       0.
PLOAD4   3       1340   1.                               443     425
         0       0.     1.       0.
PLOAD4   3       1343   1.                               417     416
         0       0.     1.       0.
PLOAD4   3       1346   1.                               376     375
         0       0.     1.       0.
PLOAD4   3       1348   1.                               423     421
         0       0.     1.       0.
PLOAD4   3       1349   1.                               423     388
         0       0.     1.       0.
$ ... 60 like lines cut
$ Referenced Coordinate Frames
ENDDATA e03b6bd4
